# File generated by Flopy version 3.3.5 on 01/07/2023 at 17:04:51.
BEGIN options
END options

BEGIN timing
  TDIS6  modflow_project.tdis
END timing

BEGIN models
  gwf6  modflow_project.nam  modflow_project
END models

BEGIN exchanges
END exchanges

BEGIN solutiongroup  1
  ims6  modflow_project.ims  modflow_project
END solutiongroup  1

