# File generated by Flopy version 3.3.6 on 01/11/2023 at 22:25:30.
BEGIN options
END options

BEGIN timing
  TDIS6  modflow_project.tdis
END timing

BEGIN models
  gwf6  modflow_project.nam  modflow_project
END models

BEGIN exchanges
END exchanges

BEGIN solutiongroup  1
  ims6  modflow_project.ims  modflow_project
END solutiongroup  1

