# File generated by Flopy version 3.3.5 on 01/07/2023 at 17:04:51.
BEGIN griddata
  strt
    INTERNAL  FACTOR  1.0
        80.00000000      80.00000000      80.00000000      80.00000000      80.00000000      80.00000000      80.00000000      80.00000000      80.00000000      80.00000000      80.00000000      80.00000000      80.00000000      80.00000000      80.00000000      80.00000000      80.00000000      80.00000000      80.00000000      80.00000000
        80.00000000      80.00000000      80.00000000      80.00000000      80.00000000      80.00000000      80.00000000      80.00000000      80.00000000      80.00000000      80.00000000      80.00000000      80.00000000      80.00000000      80.00000000      80.00000000      80.00000000      80.00000000      80.00000000      80.00000000
        80.00000000      80.00000000      80.00000000      80.00000000      80.00000000      80.00000000      80.00000000      80.00000000      80.00000000      80.00000000      80.00000000      80.00000000      80.00000000      80.00000000      80.00000000      80.00000000      80.00000000      80.00000000      80.00000000      80.00000000
        80.00000000      80.00000000      80.00000000      80.00000000      80.00000000      80.00000000      80.00000000      80.00000000      80.00000000      80.00000000      80.00000000      80.00000000      80.00000000      80.00000000      80.00000000      80.00000000      80.00000000      80.00000000      80.00000000      80.00000000
        80.00000000      80.00000000      80.00000000      80.00000000      80.00000000      80.00000000      80.00000000      80.00000000      80.00000000      80.00000000      80.00000000      80.00000000      80.00000000      80.00000000      80.00000000      80.00000000      80.00000000      80.00000000      80.00000000      80.00000000
        80.00000000      80.00000000      80.00000000      80.00000000      80.00000000      80.00000000      80.00000000      80.00000000      80.00000000      80.00000000      80.00000000      80.00000000      80.00000000      80.00000000      80.00000000      80.00000000      80.00000000      80.00000000      80.00000000      80.00000000
        80.00000000      80.00000000      80.00000000      80.00000000      80.00000000      80.00000000      80.00000000      80.00000000      80.00000000      80.00000000      80.00000000      80.00000000      80.00000000      80.00000000      80.00000000      80.00000000      80.00000000      80.00000000      80.00000000      80.00000000
        80.00000000      80.00000000      80.00000000      80.00000000      80.00000000      80.00000000      80.00000000      80.00000000      80.00000000      80.00000000      80.00000000      80.00000000      80.00000000      80.00000000      80.00000000      80.00000000      80.00000000      80.00000000      80.00000000      80.00000000
        80.00000000      80.00000000      80.00000000      80.00000000      80.00000000      80.00000000      80.00000000      80.00000000      80.00000000      80.00000000      80.00000000      80.00000000      80.00000000      80.00000000      80.00000000      80.00000000      80.00000000      80.00000000      80.00000000      80.00000000
        80.00000000      80.00000000      80.00000000      80.00000000      80.00000000      80.00000000      80.00000000      80.00000000      80.00000000      80.00000000      80.00000000      80.00000000      80.00000000      80.00000000      80.00000000      80.00000000      80.00000000      80.00000000      80.00000000      80.00000000
        80.00000000      80.00000000      80.00000000      80.00000000      80.00000000      80.00000000      80.00000000      80.00000000      80.00000000      80.00000000      80.00000000      80.00000000      80.00000000      80.00000000      80.00000000      80.00000000      80.00000000      80.00000000      80.00000000      80.00000000
        80.00000000      80.00000000      80.00000000      80.00000000      80.00000000      80.00000000      80.00000000      80.00000000      80.00000000      80.00000000      80.00000000      80.00000000      80.00000000      80.00000000      80.00000000      80.00000000      80.00000000      80.00000000      80.00000000      80.00000000
        80.00000000      80.00000000      80.00000000      80.00000000      80.00000000      80.00000000      80.00000000      80.00000000      80.00000000      80.00000000      80.00000000      80.00000000      80.00000000      80.00000000      80.00000000      80.00000000      80.00000000      80.00000000      80.00000000      80.00000000
        80.00000000      80.00000000      80.00000000      80.00000000      80.00000000      80.00000000      80.00000000      80.00000000      80.00000000      80.00000000      80.00000000      80.00000000      80.00000000      80.00000000      80.00000000      80.00000000      80.00000000      80.00000000      80.00000000      80.00000000
        80.00000000      80.00000000      80.00000000      80.00000000      80.00000000      80.00000000      80.00000000      80.00000000      80.00000000      80.00000000      80.00000000      80.00000000      80.00000000      80.00000000      80.00000000      80.00000000      80.00000000      80.00000000      80.00000000      80.00000000
        80.00000000      80.00000000      80.00000000      80.00000000      80.00000000      80.00000000      80.00000000      80.00000000      80.00000000      80.00000000      80.00000000      80.00000000      80.00000000      80.00000000      80.00000000      80.00000000      80.00000000      80.00000000      80.00000000      80.00000000
        80.00000000      80.00000000      80.00000000      80.00000000      80.00000000      80.00000000      80.00000000      80.00000000      80.00000000      80.00000000      80.00000000      80.00000000      80.00000000      80.00000000      80.00000000      80.00000000      80.00000000      80.00000000      80.00000000      80.00000000
        80.00000000      80.00000000      80.00000000      80.00000000      80.00000000      80.00000000      80.00000000      80.00000000      80.00000000      80.00000000      80.00000000      80.00000000      80.00000000      80.00000000      80.00000000      80.00000000      80.00000000      80.00000000      80.00000000      80.00000000
        80.00000000      80.00000000      80.00000000      80.00000000      80.00000000      80.00000000      80.00000000      80.00000000      80.00000000      80.00000000      80.00000000      80.00000000      80.00000000      80.00000000      80.00000000      80.00000000      80.00000000      80.00000000      80.00000000      80.00000000
        80.00000000      80.00000000      80.00000000      80.00000000      80.00000000      80.00000000      80.00000000      80.00000000      80.00000000      80.00000000      80.00000000      80.00000000      80.00000000      80.00000000      80.00000000      80.00000000      80.00000000      80.00000000      80.00000000      80.00000000
        80.00000000      80.00000000      80.00000000      80.00000000      80.00000000      80.00000000      80.00000000      80.00000000      80.00000000      80.00000000      80.00000000      80.00000000      80.00000000      80.00000000      80.00000000      80.00000000      80.00000000      80.00000000      80.00000000      80.00000000
        80.00000000      80.00000000      80.00000000      80.00000000      80.00000000      80.00000000      80.00000000      80.00000000      80.00000000      80.00000000      80.00000000      80.00000000      80.00000000      80.00000000      80.00000000      80.00000000      80.00000000      80.00000000      80.00000000      80.00000000
        80.00000000      80.00000000      80.00000000      80.00000000      80.00000000      80.00000000      80.00000000      80.00000000      80.00000000      80.00000000      80.00000000      80.00000000      80.00000000      80.00000000      80.00000000      80.00000000      80.00000000      80.00000000      80.00000000      80.00000000
        80.00000000      80.00000000      80.00000000      80.00000000      80.00000000      80.00000000      80.00000000      80.00000000      80.00000000      80.00000000      80.00000000      80.00000000      80.00000000      80.00000000      80.00000000      80.00000000      80.00000000      80.00000000      80.00000000      80.00000000
        80.00000000      80.00000000      80.00000000      80.00000000      80.00000000      80.00000000      80.00000000      80.00000000      80.00000000      80.00000000      80.00000000      80.00000000      80.00000000      80.00000000      80.00000000      80.00000000      80.00000000      80.00000000      80.00000000      80.00000000
END griddata

