# File generated by Flopy version 3.3.6 on 01/20/2023 at 12:56:07.
BEGIN options
END options

