# File generated by Flopy version 3.3.5 on 01/07/2023 at 17:04:51.
BEGIN options
END options

BEGIN packages
  DIS6  .\modflow_project.dis  dis
  NPF6  .\modflow_project.npf  npf
  IC6  .\modflow_project.ic  ic
  RCH6  .\modflow_project.rcha  rcha_0
  CHD6  .\modflow_project.chd  chd_0
  OC6  .\modflow_project.oc  oc
END packages

