# File generated by Flopy version 3.3.6 on 01/10/2023 at 20:48:25.
BEGIN options
END options

