# File generated by Flopy version 3.3.6 on 01/11/2023 at 16:05:11.
BEGIN options
  READASARRAYS
END options

BEGIN period  1
  recharge
    CONSTANT  2.00000000E-08
END period  1

