# File generated by Flopy version 3.3.5 on 01/07/2023 at 17:04:51.
BEGIN options
  READASARRAYS
END options

BEGIN period  1
  recharge
    CONSTANT  2.00000000E-08
END period  1

