# File generated by Flopy version 3.3.6 on 01/16/2023 at 12:32:46.
BEGIN options
END options

BEGIN dimensions
  NLAY  1
  NROW  25
  NCOL  20
END dimensions

BEGIN griddata
  delr
    CONSTANT      50.00000000
  delc
    CONSTANT      50.00000000
  top
    CONSTANT     120.00000000
  botm
    CONSTANT      75.00000000
  idomain
    INTERNAL  FACTOR  1
    0  0  0  0  0  0  0  1  1  1  1  1  0  0  0  0  0  0  0  0
    0  0  0  0  0  0  0  1  1  1  1  1  0  0  0  0  0  0  0  0
    0  0  0  0  0  0  0  1  1  1  1  1  0  0  0  0  0  0  0  0
    0  0  0  0  0  0  0  1  1  1  1  1  0  0  0  0  0  0  0  0
    0  0  0  0  0  0  0  1  1  1  1  1  0  0  0  0  0  0  0  0
    0  0  0  0  0  0  0  1  1  1  1  1  0  0  0  0  0  0  0  0
    0  0  0  0  0  0  0  1  1  1  1  1  0  0  0  0  0  0  0  0
    0  0  0  0  0  0  0  1  1  1  1  1  0  0  0  0  0  0  0  0
    0  0  0  0  0  0  0  1  1  1  1  1  0  0  0  0  0  0  0  0
    0  0  0  0  0  0  0  1  1  1  1  1  0  0  0  0  0  0  0  0
    0  0  0  0  0  0  0  1  1  1  1  1  0  0  0  0  0  0  0  0
    0  0  0  0  0  0  0  1  1  1  1  1  0  0  0  0  0  0  0  0
    0  0  0  0  0  0  0  1  1  1  1  1  0  0  0  0  0  0  0  0
    0  0  0  0  0  0  0  1  1  1  1  1  0  0  0  0  0  0  0  0
    0  0  0  0  0  0  0  1  1  1  1  1  0  0  0  0  0  0  0  0
    0  0  0  0  0  0  0  1  1  1  1  1  0  0  0  0  0  0  0  0
    0  0  0  0  0  0  0  1  1  1  1  1  0  0  0  0  0  0  0  0
    0  0  0  0  0  0  0  1  1  1  1  1  0  0  0  0  0  0  0  0
    0  0  0  0  0  0  0  1  1  1  1  1  0  0  0  0  0  0  0  0
    0  0  0  0  0  0  0  1  1  1  1  1  0  0  0  0  0  0  0  0
    0  0  0  0  0  0  0  1  1  1  1  1  0  0  0  0  0  0  0  0
    0  0  0  0  0  0  0  1  1  1  1  1  0  0  0  0  0  0  0  0
    0  0  0  0  0  0  0  1  1  1  1  1  0  0  0  0  0  0  0  0
    0  0  0  0  0  0  0  1  1  1  1  1  0  0  0  0  0  0  0  0
    0  0  0  0  0  0  0  1  1  1  1  1  0  0  0  0  0  0  0  0
END griddata

