# File generated by Flopy version 3.3.6 on 01/20/2023 at 12:58:47.
BEGIN options
  SAVE_SPECIFIC_DISCHARGE
END options

BEGIN griddata
  icelltype
    CONSTANT  1
  k
    CONSTANT  1.00000000E-04
  k33
    CONSTANT  1.00000000E-04
END griddata

