# File generated by Flopy version 3.3.6 on 02/02/2023 at 10:35:56.
BEGIN griddata
  strt
    CONSTANT     120.00000000
END griddata

