# File generated by Flopy version 3.3.6 on 01/16/2023 at 12:32:46.
BEGIN options
END options

