# File generated by Flopy version 3.3.5 on 01/07/2023 at 17:04:51.
BEGIN options
END options

BEGIN dimensions
  MAXBOUND  1
END dimensions

BEGIN period  1
  1 2 16     100.00000000
END period  1

