# File generated by Flopy version 3.3.5 on 01/07/2023 at 17:04:51.
BEGIN options
END options

