# File generated by Flopy version 3.3.6 on 01/20/2023 at 16:51:08.
BEGIN griddata
  strt
    CONSTANT      80.00000000
END griddata

