# File generated by Flopy version 3.3.6 on 02/02/2023 at 10:35:56.
BEGIN options
END options

BEGIN dimensions
  MAXBOUND  30
END dimensions

BEGIN period  1
  1 1 6     100.00000000
  1 25 6      95.00000000
  1 1 7     100.00000000
  1 25 7      95.00000000
  1 1 8     100.00000000
  1 25 8      95.00000000
  1 1 9     100.00000000
  1 25 9      95.00000000
  1 1 10     100.00000000
  1 25 10      95.00000000
  1 1 11     100.00000000
  1 25 11      95.00000000
  1 1 12     100.00000000
  1 25 12      95.00000000
  1 1 13     100.00000000
  1 25 13      95.00000000
  1 1 14     100.00000000
  1 25 14      95.00000000
  1 1 15     100.00000000
  1 25 15      95.00000000
  1 1 16     100.00000000
  1 25 16      95.00000000
  1 1 17     100.00000000
  1 25 17      95.00000000
  1 1 18     100.00000000
  1 25 18      95.00000000
  1 1 19     100.00000000
  1 25 19      95.00000000
  1 1 20     100.00000000
  1 25 20      95.00000000
END period  1

