# File generated by Flopy version 3.3.6 on 01/20/2023 at 12:58:47.
BEGIN options
  TIME_UNITS  seconds
END options

BEGIN dimensions
  NPER  1
END dimensions

BEGIN perioddata
  8.64000000E+06  1       1.00000000
END perioddata

