# File generated by Flopy version 3.3.5 on 01/07/2023 at 17:04:51.
BEGIN options
  BUDGET  FILEOUT  modflow_project.cbb
  HEAD  FILEOUT  modflow_project.hds
END options

BEGIN period  1
  SAVE  HEAD  ALL
  SAVE  BUDGET  ALL
  PRINT  HEAD  LAST
END period  1

