# File generated by Flopy version 3.3.6 on 01/10/2023 at 20:48:25.
BEGIN options
END options

BEGIN packages
  DIS6  modflow_project.dis  dis
  IC6  modflow_project.ic  ic
  NPF6  modflow_project.npf  npf
  RCH6  modflow_project.rcha  rcha_0
  OC6  modflow_project.oc  oc
END packages

