# File generated by Flopy version 3.3.6 on 01/16/2023 at 12:28:44.
BEGIN griddata
  strt
    CONSTANT      80.00000000
END griddata

