# File generated by Flopy version 3.3.6 on 01/10/2023 at 20:48:25.
BEGIN options
END options

BEGIN dimensions
  NLAY  1
  NROW  25
  NCOL  20
END dimensions

BEGIN griddata
  delr
    CONSTANT      50.00000000
  delc
    CONSTANT      50.00000000
  top
    CONSTANT     100.00000000
  botm
    CONSTANT      75.00000000
END griddata

