# File generated by Flopy version 3.3.6 on 02/02/2023 at 10:35:56.
BEGIN options
  READASARRAYS
END options

BEGIN period  1
  recharge
    CONSTANT  2.00000000E-08
END period  1

