# File generated by Flopy version 3.3.6 on 01/11/2023 at 22:25:30.
BEGIN griddata
  strt
    CONSTANT      80.00000000
END griddata

