# File generated by Flopy version 3.3.6 on 01/11/2023 at 16:05:11.
BEGIN options
END options

BEGIN dimensions
  MAXBOUND  1
END dimensions

BEGIN period  1
  1 2 16     100.00000000
END period  1

