# File generated by Flopy version 3.3.6 on 01/10/2023 at 20:48:25.
BEGIN options
  TIME_UNITS  seconds
END options

BEGIN dimensions
  NPER  1
END dimensions

BEGIN perioddata
  8.64000000E+06  1       1.00000000
END perioddata

