# File generated by Flopy version 3.3.6 on 01/16/2023 at 12:32:46.
BEGIN options
END options

BEGIN dimensions
  MAXBOUND  1
END dimensions

BEGIN period  1
  1 2 11     100.00000000
END period  1

