# File generated by Flopy version 3.3.6 on 01/16/2023 at 12:32:46.
BEGIN options
END options

BEGIN packages
  DIS6  modflow_project.dis  dis
  IC6  modflow_project.ic  ic
  NPF6  modflow_project.npf  npf
  RCH6  modflow_project.rcha  rcha_0
  CHD6  modflow_project.chd  chd_0
  OC6  modflow_project.oc  oc
END packages

