# File generated by Flopy version 3.3.6 on 01/11/2023 at 16:05:11.
BEGIN options
END options

