# File generated by Flopy version 3.3.5 on 01/07/2023 at 17:04:51.
BEGIN options
  TIME_UNITS  seconds
END options

BEGIN dimensions
  NPER  1
END dimensions

BEGIN perioddata
       0.00000000  8640000       1.00000000
END perioddata

