# File generated by Flopy version 3.3.6 on 01/10/2023 at 19:58:51.
BEGIN options
END options

BEGIN dimensions
  MAXBOUND  1
END dimensions

BEGIN period  1
  1 1 7     100.00000000
END period  1

