# File generated by Flopy version 3.3.6 on 01/20/2023 at 12:58:47.
BEGIN options
END options

BEGIN dimensions
  MAXBOUND  18
END dimensions

BEGIN period  1
  1 1 6     100.00000000
  1 1 7     100.00000000
  1 1 8     100.00000000
  1 1 9     100.00000000
  1 1 10     100.00000000
  1 1 11     100.00000000
  1 1 11     100.00000000
  1 1 12     100.00000000
  1 1 13     100.00000000
  1 1 14     100.00000000
  1 1 15     100.00000000
  1 1 16     100.00000000
  1 25 1      95.00000000
  1 25 2      95.00000000
  1 25 3      95.00000000
  1 25 4      95.00000000
  1 25 5      95.00000000
  1 25 6      95.00000000
END period  1

