# File generated by Flopy version 3.3.6 on 01/20/2023 at 16:51:08.
BEGIN options
END options

BEGIN dimensions
  MAXBOUND  7
END dimensions

BEGIN period  1
  1 1 6     100.00000000
  1 1 7     100.00000000
  1 1 8     100.00000000
  1 1 9     100.00000000
  1 1 10     100.00000000
  1 1 11     100.00000000
  1 25 6      95.00000000
END period  1

