# File generated by Flopy version 3.3.6 on 01/23/2023 at 15:33:20.
BEGIN options
END options

